./reference/1dis_ligand_ref.xyz
     RDKit          3D

 31 32  0  0  1  0  0  0  0  0999 V2000
    1.3826   -0.3539   -0.4611 C   0  0  0  0  0  0  0  0  0  0  0  0
    1.1956   -1.7469   -0.4121 C   0  0  0  0  0  0  0  0  0  0  0  0
    1.9926    0.2071   -1.5731 C   0  0  0  0  0  0  0  0  0  0  0  0
    1.6576   -2.5519   -1.4591 C   0  0  0  0  0  0  0  0  0  0  0  0
    2.5316   -0.6049   -2.5571 C   0  0  0  0  0  0  0  0  0  0  0  0
    2.3536   -1.9799   -2.4951 C   0  0  0  0  0  0  0  0  0  0  0  0
   -0.9074   -4.0969   -1.5721 C   0  0  0  0  0  0  0  0  0  0  0  0
    1.6466   -4.0549   -1.6251 C   0  0  0  0  0  0  0  0  0  0  0  0
    0.3176   -4.7929   -1.4401 C   0  0  0  0  0  0  0  0  0  0  0  0
   -2.0634   -4.6659   -1.2431 N   0  0  0  0  0  0  0  0  0  0  0  0
    0.2206   -6.1479   -1.0041 C   0  0  0  0  0  0  0  0  0  0  0  0
   -2.0284   -5.9149   -0.8061 C   0  0  0  0  0  0  0  0  0  0  0  0
   -0.9574   -6.6769   -0.6951 N   0  0  0  0  0  0  0  0  0  0  0  0
    1.0326    0.5551    0.5129 O   0  0  0  0  0  0  0  0  0  0  0  0
    0.0406    0.3961    1.5379 C   0  0  0  0  0  0  0  0  0  0  0  0
   -0.3644    1.8331    1.9209 C   0  0  0  0  0  0  0  0  0  0  0  0
    2.1246    2.1161   -1.7691 Br  0  0  0  0  0  0  0  0  0  0  0  0
   -1.0634    2.0381    3.2759 C   0  0  0  0  0  0  0  0  0  0  0  0
    3.2486   -0.0469   -3.5871 O   0  0  0  0  0  0  0  0  0  0  0  0
   -2.9374    3.7471    1.6059 C   0  0  0  0  0  0  0  0  0  0  0  0
   -1.3094    3.5421    3.5699 C   0  0  1  0  0  0  0  0  0  0  0  0
   -2.7334    3.9241    3.1229 C   0  0  0  0  0  0  0  0  0  0  0  0
    4.6536   -0.2549   -3.4451 C   0  0  0  0  0  0  0  0  0  0  0  0
   -5.0004    3.3581    0.4429 O   0  0  0  0  0  0  0  0  0  0  0  0
   -4.3174    4.1821    1.0899 C   0  0  0  0  0  0  0  0  0  0  0  0
   -1.0484    3.9731    5.0309 C   0  0  0  0  0  0  0  0  0  0  0  0
   -1.0444    3.1201    5.9449 O   0  0  0  0  0  0  0  0  0  0  0  0
    1.3006   -6.9099   -0.8501 N   0  0  0  0  0  0  0  0  0  0  0  0
   -3.1624   -6.4399   -0.3731 N   0  0  0  0  0  0  0  0  0  0  0  0
   -4.7154    5.3481    1.3079 O   0  0  0  0  0  0  0  0  0  0  0  0
   -0.8334    5.1841    5.2619 O   0  0  0  0  0  0  0  0  0  0  0  0
  1  2  2  0
  1 14  1  0
  3  1  1  0
  4  2  1  0
  5  6  1  0
  5  3  2  0
  6  4  2  0
  7  9  2  0
  7 10  1  0
  8  4  1  0
  8  9  1  0
  9 11  1  0
 10 12  2  0
 11 28  1  0
 11 13  2  0
 12 13  1  0
 12 29  1  0
 14 15  1  0
 15 16  1  0
 16 18  1  0
 17  3  1  0
 21 18  1  1
 19 23  1  0
 19  5  1  0
 20 22  1  0
 21 22  1  0
 21 26  1  0
 24 25  2  0
 25 30  1  0
 25 20  1  0
 26 31  2  0
 26 27  1  0
M  END
$$$$
