./reference/1hkm_ligand_ref.xyz
     RDKit          3D

 42 45  0  0  1  0  0  0  0  0999 V2000
    0.1444    1.0711    0.4474 O   0  0  0  0  0  0  0  0  0  0  0  0
    1.3424    0.4721   -0.1026 C   0  0  2  0  0  0  0  0  0  0  0  0
   -0.9816    0.9751   -0.4776 C   0  0  1  0  0  0  0  0  0  0  0  0
    1.1164   -1.0249   -0.3776 C   0  0  1  0  0  0  0  0  0  0  0  0
   -1.3506   -0.4979   -0.6526 C   0  0  2  0  0  0  0  0  0  0  0  0
   -0.1346   -1.2469   -1.2526 C   0  0  1  0  0  0  0  0  0  0  0  0
    2.4094    0.5841    0.8434 O   0  0  0  0  0  0  0  0  0  0  0  0
   -2.5176   -0.5899   -1.4736 O   0  0  0  0  0  0  0  0  0  0  0  0
    2.9894    1.9071    0.8964 C   0  0  1  0  0  0  0  0  0  0  0  0
   -3.1446   -1.8649   -1.3666 C   0  0  2  0  0  0  0  0  0  0  0  0
    2.2464    2.9411    1.7414 C   0  0  1  0  0  0  0  0  0  0  0  0
   -2.5406   -2.7689   -2.3316 O   0  0  0  0  0  0  0  0  0  0  0  0
    4.3164    1.8891    1.6454 C   0  0  2  0  0  0  0  0  0  0  0  0
   -4.6396   -1.6499   -1.6576 C   0  0  1  0  0  0  0  0  0  0  0  0
    3.2784    4.0321    2.0344 C   0  0  2  0  0  0  0  0  0  0  0  0
   -3.1716   -4.0749   -2.3346 C   0  0  1  0  0  0  0  0  0  0  0  0
    4.6524    3.3181    2.0804 C   0  0  1  0  0  0  0  0  0  0  0  0
   -5.3706   -2.9829   -1.8046 C   0  0  1  0  0  0  0  0  0  0  0  0
    3.1464    4.5401    3.3894 N   0  0  0  0  0  0  0  0  0  0  0  0
   -4.6246   -3.9029   -2.7906 C   0  0  2  0  0  0  0  0  0  0  0  0
    5.0454    3.3251    3.4924 O   0  0  0  0  0  0  0  0  0  0  0  0
    4.1464    4.1221    4.1374 C   0  0  0  0  0  0  0  0  0  0  0  0
    0.1144   -0.7839   -2.5826 O   0  0  0  0  0  0  0  0  0  0  0  0
   -2.1746    1.7411    0.0924 C   0  0  0  0  0  0  0  0  0  0  0  0
    2.3104   -1.5609   -1.0596 N   0  0  0  0  0  0  0  0  0  0  0  0
   -1.8126    3.1091    0.2554 O   0  0  0  0  0  0  0  0  0  0  0  0
    1.1664    3.4941    0.9844 O   0  0  0  0  0  0  0  0  0  0  0  0
    3.1724   -2.3719   -0.4326 C   0  0  0  0  0  0  0  0  0  0  0  0
    2.9904   -2.7049    0.7404 O   0  0  0  0  0  0  0  0  0  0  0  0
   -5.2266   -0.8679   -0.5606 N   0  0  0  0  0  0  0  0  0  0  0  0
    4.4104   -2.8709   -1.1756 C   0  0  0  0  0  0  0  0  0  0  0  0
   -5.3756    0.4581   -0.6206 C   0  0  0  0  0  0  0  0  0  0  0  0
   -5.0706    1.1431   -1.5976 O   0  0  0  0  0  0  0  0  0  0  0  0
    5.4504    1.2191    0.8624 C   0  0  0  0  0  0  0  0  0  0  0  0
    5.6834    1.9261   -0.3496 O   0  0  0  0  0  0  0  0  0  0  0  0
   -1.1206   -5.2989   -2.7736 O   0  0  0  0  0  0  0  0  0  0  0  0
   -5.9926    1.0991    0.6284 C   0  0  0  0  0  0  0  0  0  0  0  0
   -2.4246   -5.0099   -3.2936 C   0  0  0  0  0  0  0  0  0  0  0  0
   -5.4556   -3.6029   -0.5296 O   0  0  0  0  0  0  0  0  0  0  0  0
   -5.2616   -5.1839   -2.8566 O   0  0  0  0  0  0  0  0  0  0  0  0
    4.2804    4.4671    5.4234 N   0  0  0  0  0  0  0  0  0  0  0  0
    5.3024    4.0231    6.1384 C   0  0  0  0  0  0  0  0  0  0  0  0
  2  1  1  0
  2  7  1  1
  3 24  1  1
  3  1  1  0
  4 25  1  6
  4  2  1  0
  5  8  1  6
  5  3  1  0
  6 23  1  6
  6  5  1  0
  6  4  1  0
  9  7  1  1
  9 13  1  0
  9 11  1  0
 10  8  1  6
 11 27  1  6
 11 15  1  0
 12 10  1  0
 13 34  1  6
 13 17  1  0
 14 10  1  0
 14 30  1  1
 15 17  1  0
 15 19  1  1
 16 38  1  6
 16 12  1  0
 17 21  1  1
 18 14  1  0
 18 39  1  1
 19 22  2  0
 20 40  1  1
 20 16  1  0
 20 18  1  0
 21 22  1  0
 22 41  1  0
 24 26  1  0
 25 28  1  0
 28 29  2  0
 31 28  1  0
 32 30  1  0
 32 37  1  0
 33 32  2  0
 35 34  1  0
 38 36  1  0
 41 42  2  0
M  END
$$$$
