./reference/1m13_ligand_ref.xyz
     RDKit          3D

 39 40  0  0  1  0  0  0  0  0999 V2000
   -0.9515    0.4168   -1.0851 C   0  0  1  0  0  0  0  0  0  0  0  0
   -1.6975    0.1768    0.5329 C   0  0  1  0  0  0  0  0  0  0  0  0
    1.3275    1.2198    0.2849 C   0  0  0  0  0  0  0  0  0  0  0  0
    0.5985    1.3258   -1.1331 C   0  0  1  0  0  0  0  0  0  0  0  0
   -0.9595   -1.1522    1.1659 C   0  0  0  0  0  0  0  0  0  0  0  0
    0.4485    1.6038    1.6319 C   0  0  1  0  0  0  0  0  0  0  0  0
   -1.1395    1.6258    1.2269 C   0  0  0  0  0  0  0  0  0  0  0  0
    0.0765   -1.1272    2.1419 C   0  0  0  0  0  0  0  0  0  0  0  0
    0.5745    0.3218    2.6259 C   0  0  0  0  0  0  0  0  0  0  0  0
   -1.8565    2.6158    1.4279 O   0  0  0  0  0  0  0  0  0  0  0  0
    1.0685    0.4538    3.7479 O   0  0  0  0  0  0  0  0  0  0  0  0
   -0.7385   -0.8632   -2.0101 C   0  0  0  0  0  0  0  0  0  0  0  0
   -1.4015   -2.3972    0.6959 O   0  0  0  0  0  0  0  0  0  0  0  0
    1.7395    0.8558   -2.1271 C   0  0  0  0  0  0  0  0  0  0  0  0
   -1.8595    1.3548   -1.9741 C   0  0  0  0  0  0  0  0  0  0  0  0
   -3.3395   -0.0482    0.7919 C   0  0  0  0  0  0  0  0  0  0  0  0
   -1.8775   -1.7972   -2.5071 C   0  0  0  0  0  0  0  0  0  0  0  0
    0.7905   -2.3622    2.7639 C   0  0  0  0  0  0  0  0  0  0  0  0
    1.0535    2.9508    2.3239 C   0  0  0  0  0  0  0  0  0  0  0  0
    2.9735    1.7488   -2.1781 C   0  0  0  0  0  0  0  0  0  0  0  0
    1.2155   -3.4732    1.7619 C   0  0  0  0  0  0  0  0  0  0  0  0
   -4.0575    0.9378    0.9799 O   0  0  0  0  0  0  0  0  0  0  0  0
   -4.1065   -1.4422    0.8349 C   0  0  1  0  0  0  0  0  0  0  0  0
    2.3115   -3.6862    0.9749 C   0  0  0  0  0  0  0  0  0  0  0  0
    3.5505   -2.7862    0.8549 C   0  0  0  0  0  0  0  0  0  0  0  0
   -1.3075   -2.9172   -3.3811 C   0  0  0  0  0  0  0  0  0  0  0  0
    0.8475    4.3748    1.7749 C   0  0  0  0  0  0  0  0  0  0  0  0
   -0.7825   -4.6182   -1.5791 C   0  0  0  0  0  0  0  0  0  0  0  0
   -0.8345   -4.1262   -3.0121 C   0  0  0  0  0  0  0  0  0  0  0  0
    3.6565    2.1668   -3.2661 C   0  0  0  0  0  0  0  0  0  0  0  0
   -4.5375   -1.8292    2.2619 C   0  0  0  0  0  0  0  0  0  0  0  0
    2.3355   -4.9502    0.1409 C   0  0  0  0  0  0  0  0  0  0  0  0
   -5.3385   -1.4232   -0.0821 C   0  0  0  0  0  0  0  0  0  0  0  0
    1.7885    5.1698    1.2099 C   0  0  0  0  0  0  0  0  0  0  0  0
    3.2755    4.7808    1.0049 C   0  0  0  0  0  0  0  0  0  0  0  0
    3.3235    1.8018   -4.6971 C   0  0  0  0  0  0  0  0  0  0  0  0
   -0.3205   -5.0702   -4.0691 C   0  0  0  0  0  0  0  0  0  0  0  0
    4.8465    3.0768   -3.0871 C   0  0  0  0  0  0  0  0  0  0  0  0
    1.3865    6.5558    0.7429 C   0  0  0  0  0  0  0  0  0  0  0  0
  1 15  1  6
  1  2  1  0
  2 16  1  6
  2  5  1  0
  2  7  1  0
  3  6  1  0
  4 14  1  6
  4  1  1  0
  4  3  1  0
  5  8  2  0
  6 19  1  1
  6  9  1  0
  7 10  2  0
  7  6  1  0
  8  9  1  0
  8 18  1  0
  9 11  2  0
 12  1  1  0
 13  5  1  0
 16 23  1  0
 16 22  2  0
 17 12  1  0
 20 14  1  0
 21 18  1  0
 23 31  1  1
 24 21  2  3
 25 24  1  0
 26 29  2  3
 26 17  1  0
 27 19  1  0
 29 28  1  0
 30 38  1  0
 30 20  2  3
 32 24  1  0
 33 23  1  0
 34 27  2  3
 35 34  1  0
 36 30  1  0
 37 29  1  0
 39 34  1  0
M  END
$$$$
