./reference/1njs_ligand_ref.xyz
     RDKit          3D

 38 39  0  0  1  0  0  0  0  0999 V2000
   -0.7619   -0.7769   -0.2542 C   0  0  0  0  0  0  0  0  0  0  0  0
   -0.1779   -0.8269    1.0348 C   0  0  0  0  0  0  0  0  0  0  0  0
   -1.6599    0.3221   -0.6482 C   0  0  0  0  0  0  0  0  0  0  0  0
   -0.4989    0.2561    2.0078 C   0  0  0  0  0  0  0  0  0  0  0  0
   -2.0179    1.4401    0.3508 C   0  0  0  0  0  0  0  0  0  0  0  0
   -1.4299    1.3741    1.6638 C   0  0  0  0  0  0  0  0  0  0  0  0
   -2.1599    0.2621   -2.1942 C   0  0  1  0  0  0  0  0  0  0  0  0
   -1.0929   -0.4179   -3.0702 C   0  0  0  0  0  0  0  0  0  0  0  0
   -0.0449    0.8911   -3.3592 C   0  0  0  0  0  0  0  0  0  0  0  0
    0.7321    0.8771   -4.7272 C   0  0  0  0  0  0  0  0  0  0  0  0
    1.9911    1.5561   -4.2852 C   0  0  0  0  0  0  0  0  0  0  0  0
    3.2851    1.2601   -3.6472 C   0  0  0  0  0  0  0  0  0  0  0  0
    1.8831    2.8581   -4.5902 C   0  0  0  0  0  0  0  0  0  0  0  0
    4.2721    2.3361   -3.4302 N   0  0  0  0  0  0  0  0  0  0  0  0
    0.8821    3.6291   -5.1982 O   0  0  0  0  0  0  0  0  0  0  0  0
    2.9951    3.9891   -4.3012 N   0  0  0  0  0  0  0  0  0  0  0  0
    4.1291    3.5591   -3.6992 C   0  0  0  0  0  0  0  0  0  0  0  0
    0.0911    0.3131    3.3218 C   0  0  0  0  0  0  0  0  0  0  0  0
    1.0341   -0.6469    3.6518 N   0  0  0  0  0  0  0  0  0  0  0  0
   -0.2129    1.1991    4.0888 O   0  0  0  0  0  0  0  0  0  0  0  0
   -3.5649   -0.3079   -2.6252 C   0  0  2  0  0  0  0  0  0  0  0  0
   -3.8589   -2.0489   -0.7952 F   0  0  0  0  0  0  0  0  0  0  0  0
   -3.0089   -2.4399   -2.7252 F   0  0  0  0  0  0  0  0  0  0  0  0
   -4.4509    0.4851   -1.5572 O   0  0  0  0  0  0  0  0  0  0  0  0
   -3.9599   -1.7209   -2.1392 C   0  0  2  0  0  0  0  0  0  0  0  0
    3.6101   -0.0209   -3.2632 N   0  0  0  0  0  0  0  0  0  0  0  0
    1.7551   -0.6209    4.9788 C   0  0  2  0  0  0  0  0  0  0  0  0
    3.9181   -0.4709    3.5618 O   0  0  0  0  0  0  0  0  0  0  0  0
   -4.0289    0.0931   -3.6152 O   0  0  0  0  0  0  0  0  0  0  0  0
    3.3001   -0.2869    4.7808 C   0  0  0  0  0  0  0  0  0  0  0  0
    1.4321   -1.9509    5.5668 C   0  0  0  0  0  0  0  0  0  0  0  0
   -5.1909   -2.0199   -2.5872 F   0  0  0  0  0  0  0  0  0  0  0  0
   -0.0629   -2.1759    5.7818 C   0  0  0  0  0  0  0  0  0  0  0  0
    3.9301    0.1361    5.7368 O   0  0  0  0  0  0  0  0  0  0  0  0
   -0.3819   -3.4929    6.3648 C   0  0  0  0  0  0  0  0  0  0  0  0
    5.1221    4.4111   -3.4072 N   0  0  0  0  0  0  0  0  0  0  0  0
   -1.6839   -3.6089    6.5378 O   0  0  0  0  0  0  0  0  0  0  0  0
    0.4731   -4.3369    6.6448 O   0  0  0  0  0  0  0  0  0  0  0  0
  1  2  2  0
  2  4  1  0
  3  1  1  0
  3  5  2  0
  4 18  1  0
  5  6  1  0
  6  4  2  0
  7  8  1  6
  7  3  1  0
  9  8  1  0
 10 11  1  0
 10  9  1  0
 11 12  2  0
 12 14  1  0
 12 26  1  0
 13 16  1  0
 13 11  1  0
 15 13  2  0
 16 17  1  0
 17 14  2  0
 17 36  1  0
 18 19  1  0
 18 20  2  0
 19 27  1  0
 21  7  1  0
 21 25  1  0
 21 24  1  1
 25 23  1  6
 25 22  1  0
 27 31  1  6
 28 30  2  0
 29 21  1  0
 30 27  1  0
 30 34  1  0
 31 33  1  0
 32 25  1  0
 33 35  1  0
 35 37  2  0
 35 38  1  0
M  END
$$$$
