./reference/4k43_ligand_ref.xyz
     RDKit          3D

 38 39  0  0  1  0  0  0  0  0999 V2000
   -1.5861    3.3038   -0.8683 C   0  0  1  0  0  0  0  0  0  0  0  0
   -0.3601    3.9818   -1.0683 O   0  0  0  0  0  0  0  0  0  0  0  0
   -2.5311    3.5778   -2.0533 C   0  0  2  0  0  0  0  0  0  0  0  0
   -0.4301    5.3868   -1.1903 C   0  0  2  0  0  0  0  0  0  0  0  0
    2.0179    5.3468   -2.0293 C   0  0  0  0  0  0  0  0  0  0  0  0
   -2.5601    5.1068   -2.2393 C   0  0  0  0  0  0  0  0  0  0  0  0
   -1.2441    5.6378   -2.3163 O   0  0  0  0  0  0  0  0  0  0  0  0
    0.9659    6.0438   -1.4063 C   0  0  0  0  0  0  0  0  0  0  0  0
    3.2889    5.8908   -2.2343 C   0  0  0  0  0  0  0  0  0  0  0  0
    1.2919    7.3348   -0.9923 C   0  0  0  0  0  0  0  0  0  0  0  0
    3.5789    7.1868   -1.8153 C   0  0  0  0  0  0  0  0  0  0  0  0
    2.5609    7.9068   -1.1873 C   0  0  0  0  0  0  0  0  0  0  0  0
    0.2449   -0.0832    0.3927 C   0  0  2  0  0  0  0  0  0  0  0  0
   -0.1121    1.4418    0.1797 C   0  0  1  0  0  0  0  0  0  0  0  0
   -0.9791   -0.9452    0.7957 C   0  0  0  0  0  0  0  0  0  0  0  0
    1.3299   -0.1742    1.4587 C   0  0  0  0  0  0  0  0  0  0  0  0
   -1.3271    1.7658   -0.7533 C   0  0  2  0  0  0  0  0  0  0  0  0
   -0.4561    1.9348    1.4477 O   0  0  0  0  0  0  0  0  0  0  0  0
   -0.8391   -2.4822    0.5917 C   0  0  0  0  0  0  0  0  0  0  0  0
   -1.1671    1.1858   -2.1513 C   0  0  0  0  0  0  0  0  0  0  0  0
    0.3759    2.9588    1.9247 C   0  0  0  0  0  0  0  0  0  0  0  0
   -1.9671   -3.3232    1.2017 C   0  0  0  0  0  0  0  0  0  0  0  0
   -2.9091   -2.7232    1.6927 O   0  0  0  0  0  0  0  0  0  0  0  0
   -3.9351    3.0188   -1.8143 C   0  0  0  0  0  0  0  0  0  0  0  0
   -1.9541   -4.8612    1.2247 C   0  0  2  0  0  0  0  0  0  0  0  0
   -1.0521   -4.8712    3.4607 O   0  0  0  0  0  0  0  0  0  0  0  0
   -3.1101   -5.4182    0.3877 C   0  0  0  0  0  0  0  0  0  0  0  0
   -2.0121   -5.5142    2.6627 C   0  0  2  0  0  0  0  0  0  0  0  0
   -1.5431   -4.3172    4.6497 C   0  0  0  0  0  0  0  0  0  0  0  0
   -0.3001   -7.3162    1.9587 C   0  0  0  0  0  0  0  0  0  0  0  0
   -1.5911   -7.0182    2.6567 C   0  0  0  0  0  0  0  0  0  0  0  0
   -0.1391   -8.2722    1.0167 C   0  0  0  0  0  0  0  0  0  0  0  0
    2.3719   -7.9502    0.9077 C   0  0  0  0  0  0  0  0  0  0  0  0
    1.1229   -8.5882    0.4317 N   0  0  0  0  0  0  0  0  0  0  0  0
    4.8249    7.7518   -2.0003 O   0  0  0  0  0  0  0  0  0  0  0  0
    5.9109    7.1238   -1.3413 C   0  0  0  0  0  0  0  0  0  0  0  0
    1.2679   -9.5022   -0.6093 C   0  0  0  0  0  0  0  0  0  0  0  0
    2.3729   -9.7492   -1.0863 O   0  0  0  0  0  0  0  0  0  0  0  0
  1 17  1  0
  1  2  1  6
  3 24  1  1
  3  1  1  0
  4  8  1  0
  4  2  1  6
  5  8  2  0
  6  3  1  0
  7  6  1  0
  7  4  1  0
  8 10  1  0
  9  5  1  0
  9 11  2  0
 11 12  1  0
 12 10  2  0
 13 15  1  0
 13 16  1  1
 14 13  1  0
 14 18  1  1
 17 20  1  6
 17 14  1  0
 18 21  1  0
 19 15  1  0
 19 22  1  0
 22 25  1  0
 22 23  2  0
 25 27  1  6
 25 28  1  0
 26 29  1  0
 28 31  1  6
 28 26  1  0
 30 31  1  0
 32 30  2  3
 34 33  1  0
 34 32  1  0
 35 11  1  0
 35 36  1  0
 37 34  1  0
 38 37  2  0
M  END
$$$$
