./reference/4omd_ligand_ref.xyz
     RDKit          3D

 49 50  0  0  1  0  0  0  0  0999 V2000
    0.4424    0.4064   -0.6075 N   0  0  0  0  0  0  0  0  0  0  0  0
    1.7594    0.2694   -0.4805 C   0  0  0  0  0  0  0  0  0  0  0  0
   -0.1676    1.7254   -0.7795 C   0  0  2  0  0  0  0  0  0  0  0  0
   -1.7686    1.2154    0.9325 O   0  0  0  0  0  0  0  0  0  0  0  0
   -1.1876    2.0914    0.2865 C   0  0  0  0  0  0  0  0  0  0  0  0
    2.3064   -1.1526   -0.3625 C   0  0  1  0  0  0  0  0  0  0  0  0
    2.5184    1.2334   -0.4525 O   0  0  0  0  0  0  0  0  0  0  0  0
   -1.4086    3.3914    0.4595 N   0  0  0  0  0  0  0  0  0  0  0  0
    3.3914   -1.3436   -1.3245 N   0  0  0  0  0  0  0  0  0  0  0  0
    2.3844   -3.0506   -2.4175 O   0  0  0  0  0  0  0  0  0  0  0  0
    3.3354   -2.2726   -2.2755 C   0  0  0  0  0  0  0  0  0  0  0  0
   -2.3846    3.8704    1.4285 C   0  0  2  0  0  0  0  0  0  0  0  0
   -3.7516    3.4524    0.8865 C   0  0  0  0  0  0  0  0  0  0  0  0
   -4.0116    3.5804   -0.3115 O   0  0  0  0  0  0  0  0  0  0  0  0
   -5.4486   -0.9766   -0.1435 C   0  0  0  0  0  0  0  0  0  0  0  0
   -5.5776    0.4474   -0.0225 C   0  0  0  0  0  0  0  0  0  0  0  0
   -4.6206    2.9614    1.7665 N   0  0  0  0  0  0  0  0  0  0  0  0
    4.5594   -2.3066   -3.1655 C   0  0  0  0  0  0  0  0  0  0  0  0
   -5.7076   -1.8186    0.9565 C   0  0  0  0  0  0  0  0  0  0  0  0
   -5.9586    1.0224    1.2035 C   0  0  0  0  0  0  0  0  0  0  0  0
   -6.1006   -1.2346    2.1725 C   0  0  0  0  0  0  0  0  0  0  0  0
   -5.9526    2.5134    1.3855 C   0  0  0  0  0  0  0  0  0  0  0  0
   -6.2286    0.1724    2.2945 C   0  0  0  0  0  0  0  0  0  0  0  0
    5.5514   -3.3966   -2.8445 C   0  0  0  0  0  0  0  0  0  0  0  0
    6.5974   -3.1666   -1.9265 C   0  0  0  0  0  0  0  0  0  0  0  0
    5.4494   -4.6646   -3.4495 C   0  0  0  0  0  0  0  0  0  0  0  0
    7.5374   -4.1636   -1.6015 C   0  0  0  0  0  0  0  0  0  0  0  0
    6.3844   -5.6906   -3.1405 C   0  0  0  0  0  0  0  0  0  0  0  0
    7.4264   -5.4266   -2.2115 C   0  0  0  0  0  0  0  0  0  0  0  0
   -0.8756    1.8014   -2.1415 C   0  0  2  0  0  0  0  0  0  0  0  0
   -2.0876    0.8664   -2.1585 C   0  0  0  0  0  0  0  0  0  0  0  0
    2.8154   -1.4266    1.0555 C   0  0  0  0  0  0  0  0  0  0  0  0
    0.0864    1.4014   -3.2385 C   0  0  0  0  0  0  0  0  0  0  0  0
    2.1524   -3.8306    1.1545 C   0  0  0  0  0  0  0  0  0  0  0  0
    3.3014   -2.8606    1.2625 C   0  0  0  0  0  0  0  0  0  0  0  0
    2.5684   -5.2216    1.2715 N   0  0  0  0  0  0  0  0  0  0  0  0
   -2.3076    5.3914    1.5555 C   0  0  0  0  0  0  0  0  0  0  0  0
    2.4614   -5.5986   -0.9905 N   0  0  0  0  0  0  0  0  0  0  0  0
   -4.8466   -3.8646   -0.1335 N   0  0  0  0  0  0  0  0  0  0  0  0
   -0.9856    5.9164    2.0955 C   0  0  0  0  0  0  0  0  0  0  0  0
   -5.5696   -3.3116    0.8325 C   0  0  0  0  0  0  0  0  0  0  0  0
    2.7024   -6.0416    0.2365 C   0  0  0  0  0  0  0  0  0  0  0  0
    1.5204    7.1744    0.8775 N   0  0  0  0  0  0  0  0  0  0  0  0
   -6.1806   -4.0766    1.7345 N   0  0  0  0  0  0  0  0  0  0  0  0
   -0.9896    7.4354    2.1245 C   0  0  0  0  0  0  0  0  0  0  0  0
    3.0764   -7.3016    0.4235 N   0  0  0  0  0  0  0  0  0  0  0  0
    1.4354    7.8824    1.9975 C   0  0  0  0  0  0  0  0  0  0  0  0
    0.2594    8.0164    2.6075 N   0  0  0  0  0  0  0  0  0  0  0  0
    2.5234    8.4674    2.4985 N   0  0  0  0  0  0  0  0  0  0  0  0
  1  2  1  0
  2  7  2  0
  2  6  1  0
  3 30  1  0
  3  1  1  1
  3  5  1  0
  5  8  1  0
  5  4  2  0
  6 32  1  1
  8 12  1  0
  9  6  1  0
 10 11  2  0
 11  9  1  0
 12 37  1  6
 13 12  1  0
 13 17  1  0
 14 13  2  0
 15 16  2  0
 15 19  1  0
 16 20  1  0
 18 24  1  0
 18 11  1  0
 19 21  2  0
 20 22  1  0
 20 23  2  0
 21 23  1  0
 22 17  1  0
 24 25  2  0
 25 27  1  0
 26 28  2  0
 26 24  1  0
 28 29  1  0
 29 27  2  0
 30 31  1  1
 32 35  1  0
 33 30  1  0
 34 35  1  0
 34 36  1  0
 37 40  1  0
 38 42  2  0
 39 41  2  0
 40 45  1  0
 41 19  1  0
 41 44  1  0
 42 46  1  0
 42 36  1  0
 43 47  2  0
 45 48  1  0
 47 49  1  0
 47 48  1  0
M  END
$$$$
