./reference/6bto_ligand_ref.xyz
     RDKit          3D

 33 35  0  0  1  0  0  0  0  0999 V2000
    0.2012   -0.5123    1.3259 N   0  0  0  0  0  0  0  0  0  0  0  0
    1.3832   -0.3583    0.4679 C   0  0  2  0  0  0  0  0  0  0  0  0
    1.1402   -0.8003   -0.9851 C   0  0  0  0  0  0  0  0  0  0  0  0
    0.0662   -1.2683   -1.3561 O   0  0  0  0  0  0  0  0  0  0  0  0
    0.4652   -1.6483    2.2399 C   0  0  1  0  0  0  0  0  0  0  0  0
    2.2172   -0.6803   -1.7751 N   0  0  0  0  0  0  0  0  0  0  0  0
    2.3572   -1.3503    1.1319 C   0  0  2  0  0  0  0  0  0  0  0  0
    1.4172   -2.5243    1.4269 C   0  0  0  0  0  0  0  0  0  0  0  0
    1.4032   -1.1523    3.3349 C   0  0  0  0  0  0  0  0  0  0  0  0
    2.6882   -0.8533    2.5499 C   0  0  0  0  0  0  0  0  0  0  0  0
    2.2902   -1.0983   -3.1701 C   0  0  1  0  0  0  0  0  0  0  0  0
    1.3312    1.1907   -3.7891 C   0  0  0  0  0  0  0  0  0  0  0  0
    1.6922   -0.0963   -4.1711 C   0  0  0  0  0  0  0  0  0  0  0  0
    0.8092    2.0857   -4.7151 C   0  0  0  0  0  0  0  0  0  0  0  0
    1.5312   -0.4583   -5.5041 C   0  0  0  0  0  0  0  0  0  0  0  0
    0.6492    1.7097   -6.0321 C   0  0  0  0  0  0  0  0  0  0  0  0
    1.0082    0.4367   -6.4251 C   0  0  0  0  0  0  0  0  0  0  0  0
   -0.8268    0.3757    1.3259 C   0  0  0  0  0  0  0  0  0  0  0  0
   -0.8568    1.2967    0.5279 O   0  0  0  0  0  0  0  0  0  0  0  0
   -1.9658    0.1887    2.3129 C   0  0  2  0  0  0  0  0  0  0  0  0
   -3.1668   -0.4753    1.5659 C   0  0  0  0  0  0  0  0  0  0  0  0
   -2.3118    1.5427    2.9569 C   0  0  0  0  0  0  0  0  0  0  0  0
   -1.2578    1.9897    3.9509 C   0  0  0  0  0  0  0  0  0  0  0  0
   -0.5818    1.1987    4.5949 O   0  0  0  0  0  0  0  0  0  0  0  0
   -4.5958    0.0477    1.7509 C   0  0  0  0  0  0  0  0  0  0  0  0
    3.7432   -1.3843   -3.5471 C   0  0  0  0  0  0  0  0  0  0  0  0
   -1.1628    3.2977    4.0709 N   0  0  0  0  0  0  0  0  0  0  0  0
    4.6062   -0.5793   -2.9801 O   0  0  0  0  0  0  0  0  0  0  0  0
   -5.5958   -1.0013    2.2319 C   0  0  0  0  0  0  0  0  0  0  0  0
   -0.2318    3.8127    4.9659 O   0  0  0  0  0  0  0  0  0  0  0  0
    4.0502   -2.2863   -4.2991 O   0  0  0  0  0  0  0  0  0  0  0  0
   -7.0458   -0.6453    1.9249 C   0  0  0  0  0  0  0  0  0  0  0  0
   -8.0088   -1.0763    3.0039 C   0  0  0  0  0  0  0  0  0  0  0  0
  1  5  1  0
  2  3  1  6
  2  7  1  0
  2  1  1  0
  4  3  2  0
  5  8  1  0
  5  9  1  1
  6  3  1  0
  7  8  1  0
  7 10  1  1
 10  9  1  0
 11 26  1  0
 11  6  1  1
 13 12  2  0
 13 11  1  0
 14 12  1  0
 15 13  1  0
 16 14  2  0
 17 16  1  0
 17 15  2  0
 18  1  1  0
 18 20  1  0
 19 18  2  0
 20 21  1  6
 20 22  1  0
 21 25  1  0
 22 23  1  0
 23 27  1  0
 23 24  2  0
 25 29  1  0
 26 28  2  0
 27 30  1  0
 31 26  1  0
 32 29  1  0
 32 33  1  0
M  END
$$$$
